11
Coordinates from ORCA-job orca_opt E -1152.929522033586
  Pt     -2.872000      0.148000      0.176000
  N      -0.889000      0.636000      0.537000
  H      -0.768000      1.543000      1.015000
  H      -0.310000      0.660000     -0.317000
  H      -0.491000     -0.092000      1.155000
  N      -3.193000      1.807000     -1.027000
  H      -3.056000      2.703000     -0.534000
  H      -4.176000      1.781000     -1.350000
  H      -2.594000      1.826000     -1.868000
  Cl     -2.482000     -1.719000      1.541000
  Cl     -5.116000     -0.382000     -0.252000
11
Coordinates from ORCA-job orca_opt E -1152.929510872426
  Pt     -2.869841      0.143199      0.168374
  N      -0.890821      0.636566      0.536100
  H      -0.774458      1.545199      1.011507
  H      -0.308758      0.659615     -0.315924
  H      -0.493733     -0.088927      1.158471
  N      -3.191186      1.804907     -1.026699
  H      -3.051619      2.699119     -0.530584
  H      -4.175010      1.781014     -1.347202
  H      -2.594536      1.825872     -1.868471
  Cl     -2.480757     -1.717889      1.538179
  Cl     -5.116282     -0.377676     -0.247751
11
Coordinates from ORCA-job orca_opt E -1152.929175259755
  Pt     -2.880608      0.158979      0.190709
  N      -0.901872      0.639467      0.529488
  H      -0.776142      1.558208      0.978230
  H      -0.329507      0.636539     -0.329920
  H      -0.506971     -0.075578      1.170507
  N      -3.184642      1.801157     -1.010811
  H      -3.037993      2.699215     -0.519901
  H      -4.168084      1.780071     -1.331788
  H      -2.588359      1.809292     -1.847617
  Cl     -2.474474     -1.708133      1.525405
  Cl     -5.098349     -0.388218     -0.278302
11
Coordinates from ORCA-job orca_opt E -1152.929519813748
  Pt     -2.873142      0.147830      0.177419
  N      -0.889100      0.635985      0.536247
  H      -0.767712      1.547695      1.004470
  H      -0.309702      0.650358     -0.317783
  H      -0.493292     -0.086567      1.162882
  N      -3.192969      1.808418     -1.025008
  H      -3.052959      2.704080     -0.531617
  H      -4.176660      1.784250     -1.346029
  H      -2.595735      1.826168     -1.866475
  Cl     -2.480727     -1.720949      1.540258
  Cl     -5.115001     -0.386268     -0.258362
11
Coordinates from ORCA-job orca_opt E -1152.929186536733
  Pt     -2.874129      0.152191      0.182185
  N      -0.896040      0.648031      0.554627
  H      -0.782666      1.550253      1.042988
  H      -0.315995      0.685790     -0.298188
  H      -0.495305     -0.084910      1.165458
  N      -3.186505      1.795281     -1.042649
  H      -3.036358      2.696950     -0.563705
  H      -4.172083      1.774370     -1.357949
  H      -2.593561      1.795065     -1.887623
  Cl     -2.456843     -1.765537      1.464462
  Cl     -5.137515     -0.336484     -0.183607
11
Coordinates from ORCA-job orca_opt E -1152.929509755910
  Pt     -2.869818      0.144842      0.169873
  N      -0.891113      0.636313      0.535506
  H      -0.774011      1.543138      1.014324
  H      -0.312017      0.662989     -0.318348
  H      -0.492832     -0.091931      1.153420
  N      -3.190849      1.804525     -1.025941
  H      -3.054031      2.698832     -0.529597
  H      -4.173777      1.778518     -1.348896
  H      -2.591648      1.825793     -1.866205
  Cl     -2.482259     -1.714203      1.541084
  Cl     -5.114645     -0.377816     -0.249220
11
Coordinates from ORCA-job orca_opt E -1152.929478175784
  Pt     -2.876487      0.150590      0.184250
  N      -0.887377      0.635426      0.536035
  H      -0.762403      1.549326      0.998621
  H      -0.309980      0.643365     -0.319524
  H      -0.492151     -0.084856      1.166339
  N      -3.194443      1.811489     -1.023765
  H      -3.053551      2.708272     -0.532122
  H      -4.178100      1.787694     -1.345051
  H      -2.597189      1.826819     -1.864686
  Cl     -2.480935     -1.723053      1.543937
  Cl     -5.114384     -0.394074     -0.268035
11
Coordinates from ORCA-job orca_opt E -1152.929524307329
  Pt     -2.872253      0.147160      0.175447
  N      -0.889985      0.636412      0.536381
  H      -0.770316      1.545549      1.009976
  H      -0.311620      0.657057     -0.318184
  H      -0.492688     -0.089316      1.158273
  N      -3.191911      1.806699     -1.025824
  H      -3.053197      2.702124     -0.531718
  H      -4.175192      1.781595     -1.347906
  H      -2.593564      1.825068     -1.866479
  Cl     -2.480792     -1.719245      1.539541
  Cl     -5.115482     -0.382103     -0.253506
11
Coordinates from ORCA-job orca_opt E -1152.929524315689
  Pt     -2.872308      0.147213      0.175460
  N      -0.889900      0.636423      0.536371
  H      -0.770265      1.545345      1.010390
  H      -0.311744      0.657530     -0.318322
  H      -0.492491     -0.089596      1.157849
  N      -3.191907      1.806614     -1.025847
  H      -3.053420      2.702035     -0.531675
  H      -4.175120      1.781342     -1.348122
  H      -2.593363      1.825040     -1.866358
  Cl     -2.480971     -1.718998      1.539698
  Cl     -5.115512     -0.381948     -0.253445
